tests/fuzzer/corpus_json/24_columnar_21_random_034.json
{
  "version": "1.0",
  "type": "input",
  "is_batch": false,
  "attributes": {
    "node": [
      "id",
      "u_rated"
    ],
    "source": [
      "id",
      "node",
      "status",
      "u_ref",
      "u_ref_angle",
      "sk",
      "rx_ratio",
      "z01_ratio"
    ],
    "line": [
      "id",
      "from_node",
      "to_node",
      "from_status",
      "to_status",
      "r1",
      "x1",
      "c1",
      "tan1",
      "r0",
      "x0",
      "c0",
      "tan0",
      "i_n"
    ],
    "sym_load": [
      "id",
      "node",
      "status",
      "type",
      "p_specified",
      "q_specified"
    ]
  },
  "data": {
    "node": [
      [
        0,
        10000.0
      ],
      [
        1,
        10000.0
      ],
      [
        2,
        10000.0
      ],
      [
        3,
        10000.0
      ],
      [
        4,
        10000.0
      ],
      [
        5,
        10000.0
      ],
      [
        6,
        10000.0
      ],
      [
        7,
        10000.0
      ],
      [
        8,
        10000.0
      ],
      [
        9,
        10000.0
      ]
    ],
    "source": [
      [
        10,
        0,
        1,
        1.0686652410467152,
        0.0,
        585788280.0643867,
        0.44932232063229655,
        1.0
      ]
    ],
    "line": [
      [
        11,
        0,
        1,
        1,
        1,
        1.8234790099625382,
        4.744202199003435,
        4.2407453026989136e-07,
        0.0,
        0.3,
        0.3,
        1e-09,
        0.0,
        313.12192773612264
      ],
      [
        12,
        1,
        2,
        1,
        1,
        0.4726644822973275,
        2.558390603308931,
        1.5482334864507364e-07,
        0.0,
        0.3,
        0.3,
        1e-09,
        0.0,
        281.48727069500154
      ],
      [
        13,
        2,
        3,
        1,
        1,
        3.052926734144545,
        3.881887315025601,
        7.52661321489852e-07,
        0.0,
        0.3,
        0.3,
        1e-09,
        0.0,
        95.53915033650213
      ],
      [
        14,
        3,
        4,
        1,
        1,
        0.30616620068263156,
        1.2760843612185742,
        5.519603394340749e-07,
        0.0,
        0.3,
        0.3,
        1e-09,
        0.0,
        840.4552445496158
      ],
      [
        15,
        4,
        5,
        1,
        1,
        4.00232573549223,
        4.668750098599109,
        5.887922858710344e-07,
        0.0,
        0.3,
        0.3,
        1e-09,
        0.0,
        640.3227169581254
      ],
      [
        16,
        5,
        6,
        1,
        1,
        1.45978623560084,
        1.5692605902548933,
        2.060033489250864e-07,
        0.0,
        0.3,
        0.3,
        1e-09,
        0.0,
        539.9255753115661
      ],
      [
        17,
        6,
        7,
        1,
        1,
        3.036278453883932,
        2.8659623383853767,
        3.919817994793331e-07,
        0.0,
        0.3,
        0.3,
        1e-09,
        0.0,
        429.6597264243715
      ],
      [
        18,
        7,
        8,
        1,
        1,
        1.2422274680457013,
        4.07594088881976,
        5.810433601682314e-07,
        0.0,
        0.3,
        0.3,
        1e-09,
        0.0,
        751.2093276093694
      ],
      [
        19,
        8,
        9,
        1,
        1,
        4.058160537648543,
        1.4041924258665495,
        1.1702966378038937e-07,
        0.0,
        0.3,
        0.3,
        1e-09,
        0.0,
        290.0642557765577
      ]
    ],
    "sym_load": [
      [
        20,
        3,
        1,
        1,
        -9771.77639990687,
        8148.727281431125
      ],
      [
        21,
        4,
        1,
        1,
        -15985.518894393055,
        -761.8738170487886
      ],
      [
        22,
        5,
        1,
        1,
        -71970.28959713345,
        -6862.938955996187
      ],
      [
        23,
        6,
        1,
        1,
        3412.7505188032956,
        1692.6109082394123
      ],
      [
        24,
        7,
        1,
        0,
        -18437.153185578412,
        6932.831899738761
      ]
    ]
  }
}
